Circuit: * C:\Users\marco\Documents\GitHub\Marshall\LTSPICE\EL84_TEST\CompressorWith6AU6Penthode.asc

WARNING: Less than two connections to node NC_01.  This node is used by R:U1:1.
WARNING: Less than two connections to node NC_06.  This node is used by R:U2:1.
Direct Newton iteration for .op point succeeded.

Date: Tue Nov 30 22:55:08 2021
Total elapsed time: 3.165 seconds.

tnom = 27
temp = 27
method = modified trap
totiter = 99937
traniter = 99921
tranpoints = 49784
accept = 35721
rejected = 14063
matrix size = 38
fillins = 16
solver = Normal
Matrix Compiler1: 2.81 KB object code size  1.1/0.5/[0.4]
Matrix Compiler2: off  [0.4]/0.7/0.4

