Circuit: * C:\Users\marco\Documents\GitHub\Marshall\LTSPICE\EL84_TEST\Draft1.asc


Date: Sun Nov 28 19:56:32 2021
Total elapsed time: 0.069 seconds.

tnom = 27
temp = 27
method = trap
totiter = 0
traniter = 0
tranpoints = 0
accept = 0
rejected = 0
matrix size = 14
fillins = 8
solver = Normal

