Circuit: * C:\Users\marco\Documents\GitHub\Marshall\Marshall\marshall_jubilee.asc

WARNING: Node N003 is floating.

Direct Newton iteration for .op point succeeded.

Date: Tue Aug 03 22:27:53 2021
Total elapsed time: 1.660 seconds.

tnom = 27
temp = 27
method = modified trap
totiter = 44417
traniter = 44399
tranpoints = 10483
accept = 7999
rejected = 2484
matrix size = 87
fillins = 57
solver = Normal
Thread vector: 45.6/19.0[3] 4.7/3.7[2] 10.7/3.5[3] 0.7/1.8[1]  2592/500
Matrix Compiler1: 7.04 KB object code size  4.4/2.6/[1.1]
Matrix Compiler2: 6.83 KB object code size  1.9/2.5/[1.0]

