Circuit: * C:\Users\marco\Documents\GitHub\Marshall\Marshall\marshall_JCM800_50W_4010.asc

Direct Newton iteration for .op point succeeded.

Date: Thu Jul 29 17:15:22 2021
Total elapsed time: 0.059 seconds.

tnom = 27
temp = 27
method = trap
totiter = 20
traniter = 0
tranpoints = 0
accept = 0
rejected = 0
matrix size = 193
fillins = 141
solver = Normal
Matrix Compiler1:     880 opcodes
Matrix Compiler2: 14.78 KB object code size
