Circuit: * C:\Users\marco\Documents\GitHub\Marshall\Marshall\DC_9V_PSUPPLY.asc

Direct Newton iteration failed to find .op point.  (Use ".option noopiter" to skip.)
Starting Gmin stepping
Gmin = 10
Gmin = 1.07374
Gmin = 0.115292
Gmin = 0.0123794
Gmin = 0.00132923
Gmin = 0.000142725
Gmin = 1.5325e-005
Gmin = 1.6455e-006
Gmin = 1.76685e-007
Gmin = 1.89714e-008
Gmin = 2.03704e-009
Gmin = 2.18725e-010
Gmin = 2.34854e-011
Gmin = 2.52173e-012
Gmin = 2.70769e-013
Gmin = 0
Gmin stepping succeeded in finding the operating point.


Date: Wed Sep 08 13:53:44 2021
Total elapsed time: 6.588 seconds.

tnom = 27
temp = 27
method = modified trap
totiter = 487097
traniter = 486723
tranpoints = 174084
accept = 118787
rejected = 55297
matrix size = 36
fillins = 24
solver = Normal
Matrix Compiler1: 5.30 KB object code size  1.9/1.2/[0.7]
Matrix Compiler2: 3.87 KB object code size  0.8/0.8/[0.5]

