Circuit: * C:\Users\marco\Documents\GitHub\Marshall\Marshall\Draft1.asc

.OP point found by inspection.

Date: Mon Aug 30 21:45:04 2021
Total elapsed time: 0.109 seconds.

tnom = 27
temp = 27
method = modified trap
totiter = 7747
traniter = 7747
tranpoints = 2785
accept = 2221
rejected = 564
matrix size = 8
fillins = 5
solver = Normal
Matrix Compiler1: 572 bytes object code size  0.3/0.2/[0.2]
Matrix Compiler2: 656 bytes object code size  0.2/0.3/[0.2]

