Circuit: * C:\Users\marco\Documents\GitHub\Marshall\Marshall\fILAMENTO.asc

C10: Increased Cpar to 4.7e-011
C8: Increased Cpar to 3.3e-010
C7: Increased Cpar to 3.3e-010
C5: Increased Cpar to 3.3e-010
C3: Increased Cpar to 3.3e-010
C1: Increased Cpar to 3.3e-010
C2: Increased Cpar to 3.3e-010
Direct Newton iteration failed to find .op point.  (Use ".option noopiter" to skip.)
Starting Gmin stepping
Gmin = 10
Gmin = 1.07374
Gmin = 0.115292
Gmin = 0.0123794
Gmin = 0.00132923
Gmin = 0.000142725
Gmin = 1.5325e-005
Gmin = 1.6455e-006
Gmin = 1.76685e-007
Gmin = 1.89714e-008
Gmin = 2.03704e-009
Gmin = 2.18725e-010
Gmin = 2.34854e-011
Gmin = 2.52173e-012
Gmin = 2.70769e-013
Gmin = 0
Gmin stepping succeeded in finding the operating point.


Date: Fri Sep 03 21:38:00 2021
Total elapsed time: 26.851 seconds.

tnom = 27
temp = 27
method = modified trap
totiter = 393234
traniter = 392821
tranpoints = 131510
accept = 89610
rejected = 41900
matrix size = 119
fillins = 155
solver = Normal
Thread vector: 61.8/35.8[4] 32.9/12.1[4] 12.2/5.7[4] 1.5/6.9[1]  2592/500
Matrix Compiler1: 19.33 KB object code size  11.2/6.0/[3.0]
Matrix Compiler2: 13.54 KB object code size  6.1/6.6/[2.1]

