Circuit: * C:\Users\marco\Documents\GitHub\Marshall\Marshall\marshall_JCM800_50W_4010.asc

Direct Newton iteration for .op point succeeded.

Date: Tue Aug 03 22:12:38 2021
Total elapsed time: 3.862 seconds.

tnom = 27
temp = 27
method = modified trap
totiter = 61511
traniter = 61491
tranpoints = 14287
accept = 10810
rejected = 3477
matrix size = 173
fillins = 115
solver = Normal
Thread vector: 104.8/38.6[4] 15.4/8.9[4] 20.5/9.2[4] 1.1/4.1[1]  2592/500
Matrix Compiler1: 13.42 KB object code size  7.3/4.0/[2.2]
Matrix Compiler2: 13.08 KB object code size  3.6/4.4/[1.6]

