Circuit: * C:\Users\marco\Documents\GitHub\Marshall\Marshall\marshall_jubilee.asc

C8: both pins shorted together -- ignoring.
Direct Newton iteration for .op point succeeded.

Date: Sat Aug 14 22:44:43 2021
Total elapsed time: 0.454 seconds.

tnom = 27
temp = 27
method = modified trap
totiter = 9052
traniter = 9035
tranpoints = 2421
accept = 1983
rejected = 438
matrix size = 119
fillins = 77
solver = Normal
Thread vector: 55.4/32.5[4] 7.1/3.1[4] 11.5/8.6[4] 0.7/4.1[1]  2592/500
Matrix Compiler1: 9.40 KB object code size  5.4/3.0/[1.5]
Matrix Compiler2: 9.18 KB object code size  2.3/3.0/[1.0]

