Circuit: * C:\Users\marco\Documents\GitHub\Marshall\Marshall\PowerSupply.asc

Direct Newton iteration failed to find .op point.  (Use ".option noopiter" to skip.)
Starting Gmin stepping
Gmin = 10
Gmin = 1.07374
Gmin = 0.115292
Gmin = 0.0123794
Gmin = 0.00132923
Gmin = 0.000142725
Gmin = 1.5325e-005
Gmin = 1.6455e-006
Gmin = 1.76685e-007
Gmin = 1.89714e-008
Gmin = 2.03704e-009
Gmin = 2.18725e-010
Gmin = 2.34854e-011
Gmin = 2.52173e-012
Gmin = 2.70769e-013
Gmin = 0
Gmin stepping succeeded in finding the operating point.

Heightened Def Con from 1.26026 to 1.26026

Date: Sat Aug 28 09:48:32 2021
Total elapsed time: 32956.620 seconds.

tnom = 27
temp = 27
method = modified trap
totiter = 1396093184
traniter = 1396092830
tranpoints = 363844428
accept = 268858963
rejected = 94985466
matrix size = 69
fillins = 8
solver = Normal
Thread vector: 25.1/14.6[3] 14.6/5.6[3] 3.5/4.0[1] 0.5/1.5[1]  2592/500
Matrix Compiler1: 2.57 KB object code size  2.1/1.2/[0.6]
Matrix Compiler2: 4.44 KB object code size  1.7/2.8/[0.6]

