Circuit: * C:\Users\marco\Documents\GitHub\Marshall\Marshall\TBooster.asc

Direct Newton iteration for .op point succeeded.

Date: Mon Aug 02 22:32:38 2021
Total elapsed time: 0.053 seconds.

tnom = 27
temp = 27
method = trap
totiter = 7
traniter = 0
tranpoints = 0
accept = 0
rejected = 0
matrix size = 41
fillins = 13
solver = Normal
Matrix Compiler1:     149 opcodes
Matrix Compiler2: 3.01 KB object code size
