Circuit: * C:\Users\marco\Documents\GitHub\Marshall\LTSPICE\Alimentatore\Filamento.asc

C9: Increased Cpar to 2.7e-010
C8: Increased Cpar to 2.7e-010
C7: Increased Cpar to 2.7e-010
C1: Increased Cpar to 2.7e-010
Direct Newton iteration for .op point succeeded.
Heightened Def Con from 0.0197169 to 0.0197169

Date: Sun Nov 07 21:56:10 2021
Total elapsed time: 171.397 seconds.

tnom = 27
temp = 27
method = modified trap
totiter = 17286127
traniter = 17286116
tranpoints = 4861009
accept = 3455167
rejected = 1405843
matrix size = 33
fillins = 25
solver = Normal
Matrix Compiler1: 2.73 KB object code size  1.4/0.7/[0.4]
Matrix Compiler2: 2.57 KB object code size  0.5/0.9/[0.5]

