Circuit: * C:\Users\marco\Documents\GitHub\Marshall\LTSPICE\Alimentatore\HV_PowerSupply.asc

Direct Newton iteration for .op point succeeded.

Date: Sat Nov 13 12:38:54 2021
Total elapsed time: 0.381 seconds.

tnom = 27
temp = 27
method = modified trap
totiter = 38188
traniter = 38184
tranpoints = 15681
accept = 9645
rejected = 6036
matrix size = 9
fillins = 1
solver = Normal
Matrix Compiler1: 462 bytes object code size  0.4/0.1/[0.1]
Matrix Compiler2: off  [0.1]/0.1/0.1

